84
 generated by VMD
  C          0.691846        1.470112        7.055974
  C          1.322920        2.371496        5.994757
  C          2.166284        3.480825        6.623757
  C          2.901829        4.303620        5.568635
  H          0.078569        2.047848        7.747530
  H          0.056386        0.713655        6.595110
  H          1.458533        0.956098        7.635870
  H          0.540375        2.811689        5.376197
  H          1.945743        1.770451        5.331932
  H          2.891468        3.044815        7.309721
  H          1.530242        4.136075        7.218717
  H          3.609566        3.686216        5.017377
  H          2.203525        4.736539        4.853396
  H          3.461687        5.115921        6.029994
  C          5.180365        4.873740        8.919311
  C          6.369595        4.040625        8.441025
  C          6.148193        3.473611        7.036496
  C          7.340110        2.648522        6.557403
  H          4.275113        4.269633        8.974285
  H          5.369614        5.281522        9.911867
  H          4.989756        5.708130        8.244881
  H          6.545447        3.226419        9.144125
  H          7.268506        4.655951        8.451003
  H          5.966135        4.286099        6.333064
  H          5.258639        2.844734        7.031260
  H          8.238661        3.259224        6.485452
  H          7.548182        1.830012        7.244590
  H          7.145247        2.220498        5.574820
  C          8.634100        3.832666        2.800727
  C          7.576912        4.738809        2.167000
  C          7.100987        5.825847        3.133636
  C          6.053791        6.748724        2.512381
  H          8.237620        3.324724        3.679396
  H          8.963249        3.069483        2.095109
  H          9.509907        4.404171        3.109350
  H          6.728877        4.134584        1.847148
  H          7.987967        5.198940        1.268282
  H          7.953397        6.424669        3.452661
  H          6.685048        5.365263        4.029674
  H          6.437970        7.233917        1.615072
  H          5.153144        6.198087        2.241502
  H          5.768920        7.529597        3.217539
  C          2.717860        8.457247        2.916822
  C          2.750079        7.739003        4.265863
  C          2.777482        8.718039        5.441419
  C          2.854103        8.003441        6.790875
  H          3.600045        9.082397        2.785142
  H          2.693084        7.739045        2.097095
  H          1.837168        9.094137        2.832010
  H          3.622858        7.087968        4.309164
  H          1.875003        7.095567        4.346418
  H          1.882350        9.337674        5.413754
  H          3.630986        9.389100        5.342768
  H          1.995851        7.349188        6.941126
  H          3.757032        7.397957        6.861508
  H          2.871290        8.724277        7.608250
  C          6.215503        0.846131        2.879216
  C          5.073802        1.833688        3.123182
  C          4.326434        2.176493        1.830751
  C          3.237618        3.227281        2.049425
  H          6.964165        1.273332        2.212718
  H          6.712379        0.583493        3.812617
  H          5.851107       -0.074624        2.425265
  H          5.477946        2.742869        3.568345
  H          4.379240        1.412373        3.850413
  H          3.878389        1.273382        1.415981
  H          5.030185        2.544057        1.084592
  H          2.494301        2.878944        2.766951
  H          3.661856        4.158296        2.425995
  H          2.721981        3.449610        1.114880
  C          9.244752        6.063567        6.236851
  C          8.674448        7.479689        6.314847
  C          7.252728        7.491648        6.883052
  C          6.684717        8.905963        6.990378
  H          8.617535        5.423145        5.618474
  H         10.243218        6.067836        5.801994
  H          9.313551        5.612960        7.226898
  H          8.677442        7.927116        5.321126
  H          9.326750        8.095265        6.934345
  H          7.252797        7.034690        7.872237
  H          6.598009        6.885445        6.256557
  H          7.307421        9.523048        7.637303
  H          6.627730        9.384233        6.012618
  H          5.680529        8.890615        7.413615
